* NGSPICE file created from flattened.ext - technology: gf180mcuD

.subckt r2r_dac_buffered_spice OUT D0 D1 D2 D3 D4 D5 D6 D7 D8 D9 D10 D11 VDD VSS
X0 VDD.t48 x1.ADJ.t3 OUT.t34 VDD.t9 pfet_05v0 ad=26p pd=0.10052m as=26p ps=0.10052m w=100u l=0.6u
X1 x1.PLUS.t0 VSS.t7 VSS.t6 ppolyf_u_1k_6p0 r_width=1u r_length=10u
X2 VDD.t47 x1.ADJ.t4 OUT.t10 VDD.t4 pfet_05v0 ad=44p pd=0.20088m as=26p ps=0.10052m w=100u l=0.6u
X3 a_6081_9832# a_7077_9832# VSS.t27 ppolyf_u_1k_6p0 r_width=1u r_length=2u
X4 VSS.t53 a_3162_2792.t2 OUT.t69 VSS.t13 nfet_05v0 ad=26p pd=0.10052m as=26p ps=0.10052m w=100u l=0.6u
X5 OUT.t61 a_3162_2792.t3 VSS.t42 VSS.t2 nfet_05v0 ad=26p pd=0.10052m as=26p ps=0.10052m w=100u l=0.6u
X6 OUT.t62 a_3162_2792.t4 VSS.t43 VSS.t13 nfet_05v0 ad=26p pd=0.10052m as=26p ps=0.10052m w=100u l=0.6u
X7 OUT.t76 a_3162_2792.t5 VSS.t64 VSS.t2 nfet_05v0 ad=26p pd=0.10052m as=26p ps=0.10052m w=100u l=0.6u
X8 VDD.t46 x1.ADJ.t5 OUT.t8 VDD.t0 pfet_05v0 ad=26p pd=0.10052m as=44p ps=0.20088m w=100u l=0.6u
X9 OUT.t23 x1.ADJ.t6 VDD.t45 VDD.t9 pfet_05v0 ad=26p pd=0.10052m as=26p ps=0.10052m w=100u l=0.6u
X10 VSS.t65 a_3162_2792.t6 OUT.t77 VSS.t13 nfet_05v0 ad=26p pd=0.10052m as=44p ps=0.20088m w=100u l=0.6u
X11 VSS.t71 a_3162_2792.t7 OUT.t82 VSS.t2 nfet_05v0 ad=44p pd=0.20088m as=26p ps=0.10052m w=100u l=0.6u
X12 x1.ADJ.t2 VSS.t29 VSS.t28 ppolyf_u_1k_6p0 r_width=1u r_length=10u
X13 VDD.t44 x1.ADJ.t7 OUT.t17 VDD.t4 pfet_05v0 ad=26p pd=0.10052m as=26p ps=0.10052m w=100u l=0.6u
X14 OUT.t11 x1.ADJ.t8 VDD.t43 VDD.t4 pfet_05v0 ad=26p pd=0.10052m as=26p ps=0.10052m w=100u l=0.6u
X15 OUT.t24 x1.ADJ.t9 VDD.t42 VDD.t9 pfet_05v0 ad=26p pd=0.10052m as=26p ps=0.10052m w=100u l=0.6u
X16 VDD.t41 x1.ADJ.t10 OUT.t18 VDD.t9 pfet_05v0 ad=26p pd=0.10052m as=44p ps=0.20088m w=100u l=0.6u
X17 D4.t0 a_7077_9832# VSS.t50 ppolyf_u_1k_6p0 r_width=1u r_length=4u
X18 VSS.t72 a_3162_2792.t8 OUT.t83 VSS.t0 nfet_05v0 ad=26p pd=0.10052m as=26p ps=0.10052m w=100u l=0.6u
X19 OUT.t59 a_3162_2792.t9 VSS.t40 VSS.t13 nfet_05v0 ad=26p pd=0.10052m as=26p ps=0.10052m w=100u l=0.6u
X20 OUT.t60 a_3162_2792.t10 VSS.t41 VSS.t0 nfet_05v0 ad=26p pd=0.10052m as=26p ps=0.10052m w=100u l=0.6u
X21 VSS.t47 a_3162_2792.t11 OUT.t65 VSS.t13 nfet_05v0 ad=26p pd=0.10052m as=26p ps=0.10052m w=100u l=0.6u
X22 x1.MINUS.t1 OUT.t84 VSS.t80 ppolyf_u_1k_6p0 r_width=1u r_length=23.4u
X23 VSS.t48 a_3162_2792.t12 OUT.t66 VSS.t2 nfet_05v0 ad=26p pd=0.10052m as=26p ps=0.10052m w=100u l=0.6u
X24 VDD.t40 x1.ADJ.t11 OUT.t22 VDD.t9 pfet_05v0 ad=26p pd=0.10052m as=26p ps=0.10052m w=100u l=0.6u
X25 OUT.t13 x1.ADJ.t12 VDD.t39 VDD.t9 pfet_05v0 ad=26p pd=0.10052m as=26p ps=0.10052m w=100u l=0.6u
X26 VDD.t38 x1.ADJ.t13 OUT.t19 VDD.t9 pfet_05v0 ad=44p pd=0.20088m as=26p ps=0.10052m w=100u l=0.6u
X27 OUT.t70 a_3162_2792.t13 VSS.t54 VSS.t13 nfet_05v0 ad=26p pd=0.10052m as=26p ps=0.10052m w=100u l=0.6u
X28 D8.t0 a_3093_9832# VSS.t73 ppolyf_u_1k_6p0 r_width=1u r_length=4u
X29 VSS.t55 a_3162_2792.t14 OUT.t71 VSS.t13 nfet_05v0 ad=26p pd=0.10052m as=44p ps=0.20088m w=100u l=0.6u
X30 VDD.t29 x1.ADJ.t14 OUT.t25 VDD.t9 pfet_05v0 ad=26p pd=0.10052m as=44p ps=0.20088m w=100u l=0.6u
X31 VSS.t36 a_3162_2792.t15 OUT.t55 VSS.t2 nfet_05v0 ad=26p pd=0.10052m as=44p ps=0.20088m w=100u l=0.6u
X32 VSS.t37 a_3162_2792.t16 OUT.t56 VSS.t13 nfet_05v0 ad=26p pd=0.10052m as=26p ps=0.10052m w=100u l=0.6u
X33 OUT.t74 a_3162_2792.t17 VSS.t62 VSS.t13 nfet_05v0 ad=26p pd=0.10052m as=26p ps=0.10052m w=100u l=0.6u
X34 OUT.t75 a_3162_2792.t18 VSS.t63 VSS.t0 nfet_05v0 ad=26p pd=0.10052m as=26p ps=0.10052m w=100u l=0.6u
X35 VSS.t69 a_3162_2792.t19 OUT.t80 VSS.t0 nfet_05v0 ad=26p pd=0.10052m as=26p ps=0.10052m w=100u l=0.6u
X36 OUT.t28 x1.ADJ.t15 VDD.t37 VDD.t4 pfet_05v0 ad=26p pd=0.10052m as=26p ps=0.10052m w=100u l=0.6u
X37 a_10065_9832# a_11061_9832# VSS.t30 ppolyf_u_1k_6p0 r_width=1u r_length=2u
X38 VSS.t70 a_3162_2792.t20 OUT.t81 VSS.t0 nfet_05v0 ad=26p pd=0.10052m as=44p ps=0.20088m w=100u l=0.6u
X39 a_579_8278# a_1101_9832# VSS.t79 ppolyf_u_1k_6p0 r_width=1u r_length=2u
X40 a_5085_9832# a_6081_9832# VSS.t33 ppolyf_u_1k_6p0 r_width=1u r_length=2u
X41 VSS.t38 a_3162_2792.t21 OUT.t57 VSS.t2 nfet_05v0 ad=26p pd=0.10052m as=26p ps=0.10052m w=100u l=0.6u
X42 OUT.t58 a_3162_2792.t22 VSS.t39 VSS.t2 nfet_05v0 ad=26p pd=0.10052m as=26p ps=0.10052m w=100u l=0.6u
X43 OUT.t29 x1.ADJ.t16 VDD.t36 VDD.t0 pfet_05v0 ad=26p pd=0.10052m as=26p ps=0.10052m w=100u l=0.6u
X44 VDD.t35 x1.ADJ.t17 OUT.t44 VDD.t0 pfet_05v0 ad=26p pd=0.10052m as=26p ps=0.10052m w=100u l=0.6u
X45 D7.t0 a_4089_9832# VSS.t26 ppolyf_u_1k_6p0 r_width=1u r_length=4u
X46 D1.t0 a_10065_9832# VSS.t66 ppolyf_u_1k_6p0 r_width=1u r_length=4u
X47 VSS.t45 a_3162_2792.t23 OUT.t63 VSS.t0 nfet_05v0 ad=26p pd=0.10052m as=44p ps=0.20088m w=100u l=0.6u
X48 OUT.t64 a_3162_2792.t24 VSS.t46 VSS.t2 nfet_05v0 ad=26p pd=0.10052m as=26p ps=0.10052m w=100u l=0.6u
X49 VSS.t51 a_3162_2792.t25 OUT.t67 VSS.t0 nfet_05v0 ad=26p pd=0.10052m as=26p ps=0.10052m w=100u l=0.6u
X50 OUT.t68 a_3162_2792.t26 VSS.t52 VSS.t0 nfet_05v0 ad=26p pd=0.10052m as=26p ps=0.10052m w=100u l=0.6u
X51 VDD.t34 x1.ADJ.t18 OUT.t6 VDD.t0 pfet_05v0 ad=44p pd=0.20088m as=26p ps=0.10052m w=100u l=0.6u
X52 a_4089_9832# a_5085_9832# VSS.t56 ppolyf_u_1k_6p0 r_width=1u r_length=2u
X53 VDD.t33 x1.ADJ.t19 OUT.t14 VDD.t4 pfet_05v0 ad=26p pd=0.10052m as=26p ps=0.10052m w=100u l=0.6u
X54 OUT.t53 a_3162_2792.t27 VSS.t34 VSS.t0 nfet_05v0 ad=26p pd=0.10052m as=26p ps=0.10052m w=100u l=0.6u
X55 a_2576_5968.t2 x1.MINUS.t2 a_2442_2792.t2 VDD.t51 pfet_05v0 ad=6.16p pd=28.88u as=6.16p ps=28.88u w=14u l=0.6u
X56 VSS.t76 a_2442_2792.t0 a_2442_2792.t1 VSS.t75 nfet_05v0 ad=4.4p pd=20.88u as=4.4p ps=20.88u w=10u l=0.6u
X57 OUT.t15 x1.ADJ.t20 VDD.t32 VDD.t4 pfet_05v0 ad=26p pd=0.10052m as=26p ps=0.10052m w=100u l=0.6u
X58 OUT.t54 a_3162_2792.t28 VSS.t35 VSS.t2 nfet_05v0 ad=26p pd=0.10052m as=26p ps=0.10052m w=100u l=0.6u
X59 VSS.t60 a_3162_2792.t29 OUT.t72 VSS.t2 nfet_05v0 ad=26p pd=0.10052m as=26p ps=0.10052m w=100u l=0.6u
X60 a_3093_9832# a_4089_9832# VSS.t9 ppolyf_u_1k_6p0 r_width=1u r_length=2u
X61 VDD.t31 x1.ADJ.t21 OUT.t39 VDD.t0 pfet_05v0 ad=26p pd=0.10052m as=26p ps=0.10052m w=100u l=0.6u
X62 OUT.t5 x1.ADJ.t22 VDD.t30 VDD.t0 pfet_05v0 ad=26p pd=0.10052m as=26p ps=0.10052m w=100u l=0.6u
X63 D11.t0 a_579_8278# VSS.t25 ppolyf_u_1k_6p0 r_width=1u r_length=4u
X64 a_579_8278# x1.MINUS.t0 VSS.t11 ppolyf_u_1k_6p0 r_width=1u r_length=20u
X65 VDD.t28 x1.ADJ.t23 a_2576_5968.t0 VDD.t27 pfet_05v0 ad=6.16p pd=28.88u as=6.16p ps=28.88u w=14u l=0.6u
X66 D0.t0 a_11061_9832# VSS.t44 ppolyf_u_1k_6p0 r_width=1u r_length=4u
X67 VDD.t26 x1.ADJ.t24 OUT.t41 VDD.t4 pfet_05v0 ad=26p pd=0.10052m as=44p ps=0.20088m w=100u l=0.6u
X68 OUT.t4 x1.ADJ.t25 VDD.t14 VDD.t4 pfet_05v0 ad=26p pd=0.10052m as=26p ps=0.10052m w=100u l=0.6u
X69 VDD.t49 x1.PLUS.t1 VSS.t57 ppolyf_u_1k_6p0 r_width=1u r_length=10u
X70 a_9069_9832# a_10065_9832# VSS.t49 ppolyf_u_1k_6p0 r_width=1u r_length=2u
X71 VSS.t61 a_3162_2792.t30 OUT.t73 VSS.t2 nfet_05v0 ad=26p pd=0.10052m as=44p ps=0.20088m w=100u l=0.6u
X72 OUT.t20 x1.ADJ.t26 VDD.t25 VDD.t9 pfet_05v0 ad=26p pd=0.10052m as=26p ps=0.10052m w=100u l=0.6u
X73 VDD.t24 x1.ADJ.t27 OUT.t40 VDD.t9 pfet_05v0 ad=26p pd=0.10052m as=26p ps=0.10052m w=100u l=0.6u
X74 D3.t0 a_8073_9832# VSS.t15 ppolyf_u_1k_6p0 r_width=1u r_length=4u
X75 VDD.t23 x1.ADJ.t28 OUT.t45 VDD.t4 pfet_05v0 ad=26p pd=0.10052m as=26p ps=0.10052m w=100u l=0.6u
X76 VSS.t67 a_3162_2792.t31 OUT.t78 VSS.t13 nfet_05v0 ad=44p pd=0.20088m as=26p ps=0.10052m w=100u l=0.6u
X77 OUT.t30 x1.ADJ.t29 VDD.t22 VDD.t4 pfet_05v0 ad=26p pd=0.10052m as=26p ps=0.10052m w=100u l=0.6u
X78 VDD.t21 x1.ADJ.t30 OUT.t35 VDD.t4 pfet_05v0 ad=44p pd=0.20088m as=26p ps=0.10052m w=100u l=0.6u
X79 D10.t0 a_1101_9832# VSS.t19 ppolyf_u_1k_6p0 r_width=1u r_length=4u
X80 VSS.t68 a_3162_2792.t32 OUT.t79 VSS.t2 nfet_05v0 ad=26p pd=0.10052m as=26p ps=0.10052m w=100u l=0.6u
X81 OUT.t47 a_3162_2792.t33 VSS.t17 VSS.t2 nfet_05v0 ad=26p pd=0.10052m as=26p ps=0.10052m w=100u l=0.6u
X82 VDD.t20 x1.ADJ.t31 OUT.t43 VDD.t9 pfet_05v0 ad=44p pd=0.20088m as=26p ps=0.10052m w=100u l=0.6u
X83 a_8073_9832# a_9069_9832# VSS.t24 ppolyf_u_1k_6p0 r_width=1u r_length=2u
X84 VDD.t19 x1.ADJ.t32 OUT.t36 VDD.t4 pfet_05v0 ad=26p pd=0.10052m as=44p ps=0.20088m w=100u l=0.6u
X85 OUT.t27 x1.ADJ.t33 VDD.t18 VDD.t0 pfet_05v0 ad=26p pd=0.10052m as=26p ps=0.10052m w=100u l=0.6u
X86 VDD.t17 x1.ADJ.t34 OUT.t9 VDD.t9 pfet_05v0 ad=26p pd=0.10052m as=26p ps=0.10052m w=100u l=0.6u
X87 OUT.t7 x1.ADJ.t35 VDD.t16 VDD.t9 pfet_05v0 ad=26p pd=0.10052m as=26p ps=0.10052m w=100u l=0.6u
X88 OUT.t48 a_3162_2792.t34 VSS.t18 VSS.t13 nfet_05v0 ad=26p pd=0.10052m as=26p ps=0.10052m w=100u l=0.6u
X89 OUT.t51 a_3162_2792.t35 VSS.t22 VSS.t13 nfet_05v0 ad=26p pd=0.10052m as=26p ps=0.10052m w=100u l=0.6u
X90 VSS.t23 a_3162_2792.t36 OUT.t52 VSS.t0 nfet_05v0 ad=44p pd=0.20088m as=26p ps=0.10052m w=100u l=0.6u
X91 D2.t0 a_9069_9832# VSS.t5 ppolyf_u_1k_6p0 r_width=1u r_length=4u
X92 VSS.t20 a_3162_2792.t37 OUT.t49 VSS.t13 nfet_05v0 ad=44p pd=0.20088m as=26p ps=0.10052m w=100u l=0.6u
X93 a_3162_2792.t0 x1.PLUS.t2 a_2576_5968.t1 VDD.t50 pfet_05v0 ad=6.16p pd=28.88u as=6.16p ps=28.88u w=14u l=0.6u
X94 D9.t0 a_2097_9832# VSS.t4 ppolyf_u_1k_6p0 r_width=1u r_length=4u
X95 D6.t0 a_5085_9832# VSS.t32 ppolyf_u_1k_6p0 r_width=1u r_length=4u
X96 VDD.t15 x1.ADJ.t36 OUT.t33 VDD.t0 pfet_05v0 ad=26p pd=0.10052m as=26p ps=0.10052m w=100u l=0.6u
X97 a_2097_9832# a_3093_9832# VSS.t10 ppolyf_u_1k_6p0 r_width=1u r_length=2u
X98 a_3162_2792.t1 a_2442_2792.t3 VSS.t78 VSS.t77 nfet_05v0 ad=4.4p pd=20.88u as=4.4p ps=20.88u w=10u l=0.6u
X99 OUT.t50 a_3162_2792.t38 VSS.t21 VSS.t0 nfet_05v0 ad=26p pd=0.10052m as=26p ps=0.10052m w=100u l=0.6u
X100 VDD.t13 x1.ADJ.t0 x1.ADJ.t1 VDD.t12 pfet_05v0 ad=6.16p pd=28.88u as=6.16p ps=28.88u w=14u l=0.6u
X101 OUT.t2 a_3162_2792.t39 VSS.t12 VSS.t0 nfet_05v0 ad=26p pd=0.10052m as=26p ps=0.10052m w=100u l=0.6u
X102 VSS.t14 a_3162_2792.t40 OUT.t3 VSS.t13 nfet_05v0 ad=26p pd=0.10052m as=26p ps=0.10052m w=100u l=0.6u
X103 OUT.t26 x1.ADJ.t37 VDD.t11 VDD.t0 pfet_05v0 ad=26p pd=0.10052m as=26p ps=0.10052m w=100u l=0.6u
X104 OUT.t31 x1.ADJ.t38 VDD.t10 VDD.t9 pfet_05v0 ad=26p pd=0.10052m as=26p ps=0.10052m w=100u l=0.6u
X105 a_1101_9832# a_2097_9832# VSS.t8 ppolyf_u_1k_6p0 r_width=1u r_length=2u
X106 VSS.t1 a_3162_2792.t41 OUT.t0 VSS.t0 nfet_05v0 ad=44p pd=0.20088m as=26p ps=0.10052m w=100u l=0.6u
X107 VSS.t3 a_3162_2792.t42 OUT.t1 VSS.t2 nfet_05v0 ad=44p pd=0.20088m as=26p ps=0.10052m w=100u l=0.6u
X108 VDD.t8 x1.ADJ.t39 OUT.t42 VDD.t0 pfet_05v0 ad=26p pd=0.10052m as=44p ps=0.20088m w=100u l=0.6u
X109 OUT.t16 x1.ADJ.t40 VDD.t7 VDD.t0 pfet_05v0 ad=26p pd=0.10052m as=26p ps=0.10052m w=100u l=0.6u
X110 a_7077_9832# a_8073_9832# VSS.t31 ppolyf_u_1k_6p0 r_width=1u r_length=2u
X111 D5.t0 a_6081_9832# VSS.t74 ppolyf_u_1k_6p0 r_width=1u r_length=4u
X112 VSS.t16 a_3162_2792.t43 OUT.t46 VSS.t0 nfet_05v0 ad=26p pd=0.10052m as=26p ps=0.10052m w=100u l=0.6u
X113 OUT.t32 x1.ADJ.t41 VDD.t6 VDD.t4 pfet_05v0 ad=26p pd=0.10052m as=26p ps=0.10052m w=100u l=0.6u
X114 VDD.t5 x1.ADJ.t42 OUT.t21 VDD.t4 pfet_05v0 ad=26p pd=0.10052m as=26p ps=0.10052m w=100u l=0.6u
X115 VDD.t3 x1.ADJ.t43 OUT.t38 VDD.t0 pfet_05v0 ad=26p pd=0.10052m as=26p ps=0.10052m w=100u l=0.6u
X116 OUT.t37 x1.ADJ.t44 VDD.t2 VDD.t0 pfet_05v0 ad=26p pd=0.10052m as=26p ps=0.10052m w=100u l=0.6u
X117 VDD.t1 x1.ADJ.t45 OUT.t12 VDD.t0 pfet_05v0 ad=44p pd=0.20088m as=26p ps=0.10052m w=100u l=0.6u
X118 a_11061_9832# VSS.t59 VSS.t58 ppolyf_u_1k_6p0 r_width=1u r_length=4u
R0 x1.ADJ.t30 x1.ADJ.n25 620.038
R1 x1.ADJ.t32 x1.ADJ.n4 620.038
R2 x1.ADJ.n57 x1.ADJ.t24 620.038
R3 x1.ADJ.n42 x1.ADJ.t4 620.038
R4 x1.ADJ.n14 x1.ADJ.t45 620.006
R5 x1.ADJ.t39 x1.ADJ.n52 620.006
R6 x1.ADJ.t5 x1.ADJ.n69 620.006
R7 x1.ADJ.t18 x1.ADJ.n39 620.006
R8 x1.ADJ.t29 x1.ADJ.n42 619.74
R9 x1.ADJ.n39 x1.ADJ.t44 619.74
R10 x1.ADJ.t19 x1.ADJ.n35 619.74
R11 x1.ADJ.t36 x1.ADJ.n30 619.74
R12 x1.ADJ.n50 x1.ADJ.t15 619.74
R13 x1.ADJ.n64 x1.ADJ.t33 619.74
R14 x1.ADJ.t7 x1.ADJ.n58 619.74
R15 x1.ADJ.t21 x1.ADJ.n31 619.74
R16 x1.ADJ.n69 x1.ADJ.t40 619.74
R17 x1.ADJ.t25 x1.ADJ.n4 619.74
R18 x1.ADJ.n68 x1.ADJ.t17 619.74
R19 x1.ADJ.n79 x1.ADJ.t42 619.74
R20 x1.ADJ.t22 x1.ADJ.n9 619.74
R21 x1.ADJ.t8 x1.ADJ.n3 619.74
R22 x1.ADJ.n25 x1.ADJ.t20 619.74
R23 x1.ADJ.n14 x1.ADJ.t37 619.74
R24 x1.ADJ.t28 x1.ADJ.n12 619.74
R25 x1.ADJ.t43 x1.ADJ.n15 619.74
R26 x1.ADJ.n52 x1.ADJ.t16 619.74
R27 x1.ADJ.n57 x1.ADJ.t41 619.74
R28 x1.ADJ.n43 x1.ADJ.t12 614.254
R29 x1.ADJ.n43 x1.ADJ.t29 614.254
R30 x1.ADJ.n38 x1.ADJ.t12 614.254
R31 x1.ADJ.t44 x1.ADJ.n38 614.254
R32 x1.ADJ.n46 x1.ADJ.t3 614.254
R33 x1.ADJ.n46 x1.ADJ.t19 614.254
R34 x1.ADJ.t3 x1.ADJ.n45 614.254
R35 x1.ADJ.n45 x1.ADJ.t36 614.254
R36 x1.ADJ.n49 x1.ADJ.t38 614.254
R37 x1.ADJ.t15 x1.ADJ.n49 614.254
R38 x1.ADJ.n63 x1.ADJ.t38 614.254
R39 x1.ADJ.t33 x1.ADJ.n63 614.254
R40 x1.ADJ.t34 x1.ADJ.n59 614.254
R41 x1.ADJ.n59 x1.ADJ.t7 614.254
R42 x1.ADJ.n60 x1.ADJ.t34 614.254
R43 x1.ADJ.n60 x1.ADJ.t21 614.254
R44 x1.ADJ.n74 x1.ADJ.t40 614.254
R45 x1.ADJ.t9 x1.ADJ.n74 614.254
R46 x1.ADJ.n75 x1.ADJ.t9 614.254
R47 x1.ADJ.n75 x1.ADJ.t25 614.254
R48 x1.ADJ.t17 x1.ADJ.n67 614.254
R49 x1.ADJ.n67 x1.ADJ.t27 614.254
R50 x1.ADJ.n78 x1.ADJ.t27 614.254
R51 x1.ADJ.t42 x1.ADJ.n78 614.254
R52 x1.ADJ.n17 x1.ADJ.t22 614.254
R53 x1.ADJ.n17 x1.ADJ.t35 614.254
R54 x1.ADJ.t35 x1.ADJ.n16 614.254
R55 x1.ADJ.n16 x1.ADJ.t8 614.254
R56 x1.ADJ.n24 x1.ADJ.t6 614.254
R57 x1.ADJ.t20 x1.ADJ.n24 614.254
R58 x1.ADJ.t37 x1.ADJ.n13 614.254
R59 x1.ADJ.n13 x1.ADJ.t6 614.254
R60 x1.ADJ.n21 x1.ADJ.t11 614.254
R61 x1.ADJ.n21 x1.ADJ.t28 614.254
R62 x1.ADJ.n20 x1.ADJ.t43 614.254
R63 x1.ADJ.t11 x1.ADJ.n20 614.254
R64 x1.ADJ.n27 x1.ADJ.t45 614.254
R65 x1.ADJ.n27 x1.ADJ.t13 614.254
R66 x1.ADJ.t13 x1.ADJ.n26 614.254
R67 x1.ADJ.n26 x1.ADJ.t30 614.254
R68 x1.ADJ.t14 x1.ADJ.n70 614.254
R69 x1.ADJ.n70 x1.ADJ.t32 614.254
R70 x1.ADJ.n71 x1.ADJ.t5 614.254
R71 x1.ADJ.n71 x1.ADJ.t14 614.254
R72 x1.ADJ.t16 x1.ADJ.n51 614.254
R73 x1.ADJ.n51 x1.ADJ.t26 614.254
R74 x1.ADJ.n56 x1.ADJ.t26 614.254
R75 x1.ADJ.t41 x1.ADJ.n56 614.254
R76 x1.ADJ.n54 x1.ADJ.t24 614.254
R77 x1.ADJ.n41 x1.ADJ.t31 614.254
R78 x1.ADJ.t4 x1.ADJ.n41 614.254
R79 x1.ADJ.t31 x1.ADJ.n40 614.254
R80 x1.ADJ.n40 x1.ADJ.t18 614.254
R81 x1.ADJ.n53 x1.ADJ.t39 614.254
R82 x1.ADJ.t10 x1.ADJ.n53 614.254
R83 x1.ADJ.n54 x1.ADJ.t10 614.254
R84 x1.ADJ.t23 x1.ADJ.n86 101.537
R85 x1.ADJ.n87 x1.ADJ.t23 101.079
R86 x1.ADJ.t0 x1.ADJ.n83 101.079
R87 x1.ADJ.n84 x1.ADJ.t0 101.076
R88 x1.ADJ.n65 x1.ADJ.n29 15.7436
R89 x1.ADJ.n82 x1.ADJ.n2 14.7961
R90 x1.ADJ.n29 x1.ADJ.n2 14.6668
R91 x1.ADJ x1.ADJ.t2 9.44369
R92 x1.ADJ.n53 x1.ADJ.n33 5.13335
R93 x1.ADJ.n55 x1.ADJ.n54 5.13335
R94 x1.ADJ.n41 x1.ADJ.n36 5.02611
R95 x1.ADJ.n56 x1.ADJ.n55 5.02611
R96 x1.ADJ.n40 x1.ADJ.n8 5.02611
R97 x1.ADJ.n44 x1.ADJ.n43 5.02611
R98 x1.ADJ.n38 x1.ADJ.n37 5.02611
R99 x1.ADJ.n47 x1.ADJ.n46 5.02611
R100 x1.ADJ.n45 x1.ADJ.n32 5.02611
R101 x1.ADJ.n49 x1.ADJ.n48 5.02611
R102 x1.ADJ.n63 x1.ADJ.n62 5.02611
R103 x1.ADJ.n59 x1.ADJ.n34 5.02611
R104 x1.ADJ.n61 x1.ADJ.n60 5.02611
R105 x1.ADJ.n72 x1.ADJ.n71 5.02611
R106 x1.ADJ.n70 x1.ADJ.n6 5.02611
R107 x1.ADJ.n76 x1.ADJ.n75 5.02611
R108 x1.ADJ.n74 x1.ADJ.n73 5.02611
R109 x1.ADJ.n78 x1.ADJ.n77 5.02611
R110 x1.ADJ.n67 x1.ADJ.n7 5.02611
R111 x1.ADJ.n16 x1.ADJ.n5 5.02611
R112 x1.ADJ.n18 x1.ADJ.n17 5.02611
R113 x1.ADJ.n26 x1.ADJ.n11 5.02611
R114 x1.ADJ.n28 x1.ADJ.n27 5.02611
R115 x1.ADJ.n13 x1.ADJ.n10 5.02611
R116 x1.ADJ.n24 x1.ADJ.n23 5.02611
R117 x1.ADJ.n20 x1.ADJ.n19 5.02611
R118 x1.ADJ.n22 x1.ADJ.n21 5.02611
R119 x1.ADJ.n51 x1.ADJ.n33 5.02611
R120 x1.ADJ.n65 x1.ADJ.n64 2.82526
R121 x1.ADJ.n81 x1.ADJ.n1 2.35383
R122 x1.ADJ.n86 x1.ADJ.n85 1.5858
R123 x1.ADJ.n85 x1.ADJ.n0 1.5511
R124 x1.ADJ.n82 x1.ADJ.n81 0.8605
R125 x1.ADJ x1.ADJ.n87 0.800244
R126 x1.ADJ.n84 x1.ADJ.n1 0.649885
R127 x1.ADJ.n83 x1.ADJ.n82 0.533174
R128 x1.ADJ.n50 x1.ADJ.n1 0.471929
R129 x1.ADJ.n85 x1.ADJ.t1 0.470597
R130 x1.ADJ.n72 x1.ADJ.n8 0.437096
R131 x1.ADJ.n36 x1.ADJ.n6 0.437096
R132 x1.ADJ.n87 x1.ADJ.n0 0.401314
R133 x1.ADJ.n66 x1.ADJ.n65 0.321929
R134 x1.ADJ.n81 x1.ADJ.n80 0.321929
R135 x1.ADJ.n25 x1.ADJ.n12 0.298623
R136 x1.ADJ.n12 x1.ADJ.n3 0.298623
R137 x1.ADJ.n79 x1.ADJ.n4 0.298623
R138 x1.ADJ.n58 x1.ADJ.n57 0.298623
R139 x1.ADJ.n58 x1.ADJ.n50 0.298623
R140 x1.ADJ.n50 x1.ADJ.n35 0.298623
R141 x1.ADJ.n42 x1.ADJ.n35 0.298623
R142 x1.ADJ.n80 x1.ADJ.n79 0.295483
R143 x1.ADJ.n15 x1.ADJ.n9 0.26697
R144 x1.ADJ.n15 x1.ADJ.n14 0.26697
R145 x1.ADJ.n69 x1.ADJ.n68 0.26697
R146 x1.ADJ.n39 x1.ADJ.n30 0.26697
R147 x1.ADJ.n64 x1.ADJ.n30 0.26697
R148 x1.ADJ.n64 x1.ADJ.n31 0.26697
R149 x1.ADJ.n52 x1.ADJ.n31 0.26697
R150 x1.ADJ.n68 x1.ADJ.n66 0.26383
R151 x1.ADJ.n29 x1.ADJ.n28 0.148426
R152 x1.ADJ.n11 x1.ADJ.n2 0.148426
R153 x1.ADJ.n83 x1.ADJ.n0 0.1355
R154 x1.ADJ.n86 x1.ADJ.n84 0.120962
R155 x1.ADJ.n28 x1.ADJ.n10 0.107734
R156 x1.ADJ.n19 x1.ADJ.n10 0.107734
R157 x1.ADJ.n19 x1.ADJ.n18 0.107734
R158 x1.ADJ.n18 x1.ADJ.n7 0.107734
R159 x1.ADJ.n73 x1.ADJ.n7 0.107734
R160 x1.ADJ.n73 x1.ADJ.n72 0.107734
R161 x1.ADJ.n37 x1.ADJ.n8 0.107734
R162 x1.ADJ.n37 x1.ADJ.n32 0.107734
R163 x1.ADJ.n62 x1.ADJ.n32 0.107734
R164 x1.ADJ.n62 x1.ADJ.n61 0.107734
R165 x1.ADJ.n61 x1.ADJ.n33 0.107734
R166 x1.ADJ.n23 x1.ADJ.n11 0.107734
R167 x1.ADJ.n23 x1.ADJ.n22 0.107734
R168 x1.ADJ.n22 x1.ADJ.n5 0.107734
R169 x1.ADJ.n77 x1.ADJ.n5 0.107734
R170 x1.ADJ.n77 x1.ADJ.n76 0.107734
R171 x1.ADJ.n76 x1.ADJ.n6 0.107734
R172 x1.ADJ.n44 x1.ADJ.n36 0.107734
R173 x1.ADJ.n47 x1.ADJ.n44 0.107734
R174 x1.ADJ.n48 x1.ADJ.n47 0.107734
R175 x1.ADJ.n48 x1.ADJ.n34 0.107734
R176 x1.ADJ.n55 x1.ADJ.n34 0.107734
R177 x1.ADJ.n80 x1.ADJ.n3 0.00363953
R178 x1.ADJ.n66 x1.ADJ.n9 0.00363953
R179 OUT.n63 OUT.n61 34.1284
R180 OUT.n44 OUT.n42 34.1273
R181 OUT.n82 OUT.n80 34.1273
R182 OUT.n76 OUT.n74 34.1267
R183 OUT.n37 OUT.n35 34.1262
R184 OUT.n71 OUT.n70 34.1245
R185 OUT.n87 OUT.n86 34.1245
R186 OUT.n97 OUT.n95 34.1225
R187 OUT.n16 OUT.n15 34.1225
R188 OUT.n48 OUT.n47 34.1206
R189 OUT.n11 OUT.n10 34.1206
R190 OUT.n27 OUT.n25 34.1186
R191 OUT.n93 OUT.n92 34.1167
R192 OUT.n53 OUT.n51 34.1147
R193 OUT.n58 OUT.n57 34.1147
R194 OUT.n20 OUT.n19 34.1089
R195 OUT.n66 OUT.t84 29.5912
R196 OUT.n59 OUT.t77 26.7643
R197 OUT.n21 OUT.t36 26.7629
R198 OUT.n99 OUT.n98 26.7616
R199 OUT.n2 OUT.n1 26.7616
R200 OUT.n33 OUT.n32 26.7596
R201 OUT.n8 OUT.n7 26.7596
R202 OUT.n49 OUT.t41 26.757
R203 OUT.n84 OUT.n83 26.7538
R204 OUT.n23 OUT.n22 26.7538
R205 OUT.n90 OUT.n18 26.7447
R206 OUT.n29 OUT.n28 26.7408
R207 OUT.n55 OUT.n54 26.7388
R208 OUT.n46 OUT.n45 26.7388
R209 OUT.n68 OUT.n40 26.7369
R210 OUT.n65 OUT.n64 26.7349
R211 OUT.n88 OUT.t71 26.6707
R212 OUT.n65 OUT.n63 7.71659
R213 OUT.n70 OUT.n68 7.71464
R214 OUT.n55 OUT.n53 7.71268
R215 OUT.n46 OUT.n44 7.71268
R216 OUT.n49 OUT.n48 7.71268
R217 OUT.n29 OUT.n27 7.71072
R218 OUT.n59 OUT.n58 7.70877
R219 OUT.n92 OUT.n90 7.70681
R220 OUT.n21 OUT.n20 7.70681
R221 OUT.n84 OUT.n82 7.7029
R222 OUT.n74 OUT.n23 7.7029
R223 OUT.n35 OUT.n33 7.69703
R224 OUT.n10 OUT.n8 7.69703
R225 OUT.n99 OUT.n97 7.69507
R226 OUT.n15 OUT.n2 7.69507
R227 OUT.n88 OUT.n87 7.59954
R228 OUT OUT.n100 1.97295
R229 OUT OUT.n0 0.109596
R230 OUT.n19 OUT.t8 0.0543631
R231 OUT.n57 OUT.t81 0.0534887
R232 OUT.n67 OUT.n59 0.0505
R233 OUT.n85 OUT.n23 0.0505
R234 OUT.n100 OUT.n2 0.0505
R235 OUT.n8 OUT.n3 0.0505
R236 OUT.n89 OUT.n88 0.0505
R237 OUT.n85 OUT.n84 0.0505
R238 OUT.n33 OUT.n3 0.0505
R239 OUT.n100 OUT.n99 0.0505
R240 OUT.n56 OUT.n49 0.0505
R241 OUT.n66 OUT.n65 0.0505
R242 OUT.n56 OUT.n46 0.0505
R243 OUT.n68 OUT.n67 0.0505
R244 OUT.n89 OUT.n21 0.0505
R245 OUT.n30 OUT.n29 0.0505
R246 OUT.n90 OUT.n89 0.0505
R247 OUT.n56 OUT.n55 0.0505
R248 OUT.n87 OUT.t73 0.0464575
R249 OUT.n86 OUT.t63 0.0464575
R250 OUT.n58 OUT.t55 0.0464575
R251 OUT.n47 OUT.t42 0.0459256
R252 OUT.n20 OUT.t25 0.0431131
R253 OUT.n48 OUT.t18 0.0431131
R254 OUT.n61 OUT.n31 0.0339259
R255 OUT.n11 OUT.n6 0.03289
R256 OUT.n51 OUT.n50 0.0319444
R257 OUT.n95 OUT.n4 0.0314837
R258 OUT.n16 OUT.n13 0.0314837
R259 OUT.n42 OUT.n31 0.0310915
R260 OUT.n80 OUT.n78 0.0310915
R261 OUT.n93 OUT.n17 0.0305381
R262 OUT.n97 OUT.n96 0.0300775
R263 OUT.n37 OUT.n36 0.0300775
R264 OUT.n35 OUT.n34 0.0300775
R265 OUT.n80 OUT.n79 0.0300775
R266 OUT.n82 OUT.n81 0.0300775
R267 OUT.n10 OUT.n9 0.0300775
R268 OUT.n15 OUT.n14 0.0300775
R269 OUT.n76 OUT.n75 0.0300775
R270 OUT.n74 OUT.n73 0.0300775
R271 OUT.n77 OUT.n76 0.0296852
R272 OUT.n25 OUT.n24 0.0291319
R273 OUT.n72 OUT.n37 0.028279
R274 OUT.n53 OUT.n52 0.0249131
R275 OUT.n92 OUT.n91 0.0249131
R276 OUT.n27 OUT.n26 0.0249131
R277 OUT.n71 OUT.n39 0.0249131
R278 OUT.n70 OUT.n69 0.0249131
R279 OUT.n42 OUT.n41 0.0249131
R280 OUT.n44 OUT.n43 0.0249131
R281 OUT.n61 OUT.n60 0.0249131
R282 OUT.n63 OUT.n62 0.0249131
R283 OUT.n57 OUT.n0 0.0240602
R284 OUT.n94 OUT.n16 0.0240602
R285 OUT.n12 OUT.n11 0.0240602
R286 OUT.n86 OUT.n5 0.0240602
R287 OUT.n95 OUT.n94 0.0240602
R288 OUT.n47 OUT.n38 0.0240602
R289 OUT.n72 OUT.n71 0.0240602
R290 OUT.n19 OUT.n0 0.0240602
R291 OUT.n25 OUT.n5 0.0240602
R292 OUT.n94 OUT.n93 0.0240602
R293 OUT.n51 OUT.n12 0.0240602
R294 OUT.n54 OUT.t35 0.0187
R295 OUT.n54 OUT.t15 0.0187
R296 OUT.n52 OUT.t19 0.0187
R297 OUT.n52 OUT.t23 0.0187
R298 OUT.n50 OUT.t12 0.0187
R299 OUT.n50 OUT.t26 0.0187
R300 OUT.n18 OUT.t45 0.0187
R301 OUT.n18 OUT.t11 0.0187
R302 OUT.n91 OUT.t22 0.0187
R303 OUT.n91 OUT.t7 0.0187
R304 OUT.n17 OUT.t38 0.0187
R305 OUT.n17 OUT.t5 0.0187
R306 OUT.n28 OUT.t21 0.0187
R307 OUT.n28 OUT.t4 0.0187
R308 OUT.n26 OUT.t40 0.0187
R309 OUT.n26 OUT.t24 0.0187
R310 OUT.n24 OUT.t44 0.0187
R311 OUT.n24 OUT.t16 0.0187
R312 OUT.n40 OUT.t10 0.0187
R313 OUT.n40 OUT.t30 0.0187
R314 OUT.n69 OUT.t43 0.0187
R315 OUT.n69 OUT.t13 0.0187
R316 OUT.n39 OUT.t6 0.0187
R317 OUT.n39 OUT.t37 0.0187
R318 OUT.n45 OUT.t14 0.0187
R319 OUT.n45 OUT.t28 0.0187
R320 OUT.n43 OUT.t34 0.0187
R321 OUT.n43 OUT.t31 0.0187
R322 OUT.n41 OUT.t33 0.0187
R323 OUT.n41 OUT.t27 0.0187
R324 OUT.n64 OUT.t17 0.0187
R325 OUT.n64 OUT.t32 0.0187
R326 OUT.n62 OUT.t9 0.0187
R327 OUT.n62 OUT.t20 0.0187
R328 OUT.n60 OUT.t39 0.0187
R329 OUT.n60 OUT.t29 0.0187
R330 OUT.n98 OUT.t49 0.01688
R331 OUT.n98 OUT.t74 0.01688
R332 OUT.n96 OUT.t82 0.01688
R333 OUT.n96 OUT.t47 0.01688
R334 OUT.n4 OUT.t0 0.01688
R335 OUT.n4 OUT.t68 0.01688
R336 OUT.n32 OUT.t65 0.01688
R337 OUT.n32 OUT.t62 0.01688
R338 OUT.n34 OUT.t72 0.01688
R339 OUT.n34 OUT.t58 0.01688
R340 OUT.n36 OUT.t80 0.01688
R341 OUT.n36 OUT.t60 0.01688
R342 OUT.n83 OUT.t3 0.01688
R343 OUT.n83 OUT.t51 0.01688
R344 OUT.n81 OUT.t66 0.01688
R345 OUT.n81 OUT.t76 0.01688
R346 OUT.n79 OUT.t46 0.01688
R347 OUT.n79 OUT.t2 0.01688
R348 OUT.n7 OUT.t78 0.01688
R349 OUT.n7 OUT.t48 0.01688
R350 OUT.n9 OUT.t1 0.01688
R351 OUT.n9 OUT.t61 0.01688
R352 OUT.n6 OUT.t52 0.01688
R353 OUT.n6 OUT.t50 0.01688
R354 OUT.n1 OUT.t56 0.01688
R355 OUT.n1 OUT.t59 0.01688
R356 OUT.n14 OUT.t79 0.01688
R357 OUT.n14 OUT.t54 0.01688
R358 OUT.n13 OUT.t67 0.01688
R359 OUT.n13 OUT.t75 0.01688
R360 OUT.n22 OUT.t69 0.01688
R361 OUT.n22 OUT.t70 0.01688
R362 OUT.n73 OUT.t57 0.01688
R363 OUT.n73 OUT.t64 0.01688
R364 OUT.n75 OUT.t83 0.01688
R365 OUT.n75 OUT.t53 0.01688
R366 OUT.n78 OUT.n31 0.000532943
R367 OUT.n12 OUT.n0 0.000532943
R368 OUT.n89 OUT.n3 0.000521962
R369 OUT.n72 OUT.n38 0.000521962
R370 OUT.n100 OUT.n3 0.000510981
R371 OUT.n89 OUT.n85 0.000510981
R372 OUT.n85 OUT.n30 0.000510981
R373 OUT.n56 OUT.n30 0.000510981
R374 OUT.n67 OUT.n56 0.000510981
R375 OUT.n67 OUT.n66 0.000510981
R376 OUT.n78 OUT.n77 0.000510981
R377 OUT.n77 OUT.n72 0.000510981
R378 OUT.n38 OUT.n5 0.000510981
R379 OUT.n94 OUT.n5 0.000510981
R380 OUT.n94 OUT.n12 0.000510981
R381 VDD.t9 VDD.t0 4343.5
R382 VDD.t9 VDD.t4 4343.5
R383 VDD.n25 VDD.t4 2223.27
R384 VDD.n27 VDD.n26 180.601
R385 VDD.n33 VDD.n27 180.601
R386 VDD.n23 VDD.n17 180.601
R387 VDD.n36 VDD.n17 180.601
R388 VDD.n26 VDD.n21 147.525
R389 VDD.n36 VDD.n34 147.525
R390 VDD.n27 VDD.n19 135.8
R391 VDD.n20 VDD.n19 135.8
R392 VDD.n34 VDD.n33 135.8
R393 VDD.n23 VDD.n21 135.8
R394 VDD.n38 VDD.n16 135.8
R395 VDD.n38 VDD.n17 135.8
R396 VDD.t50 VDD.n23 119.879
R397 VDD.t51 VDD.n36 119.879
R398 VDD.n37 VDD.t51 119.683
R399 VDD.n25 VDD.t12 54.9597
R400 VDD.t27 VDD.n18 35.4234
R401 VDD.n51 VDD.n49 34.1113
R402 VDD.n87 VDD.n85 34.1107
R403 VDD.n65 VDD.n63 34.1107
R404 VDD.n79 VDD.n77 34.1085
R405 VDD.n72 VDD.n70 34.1085
R406 VDD.n57 VDD.n55 34.1074
R407 VDD.n21 VDD.n20 33.0755
R408 VDD.n34 VDD.n16 33.0755
R409 VDD.t12 VDD.t50 28.7682
R410 VDD.t51 VDD.t27 28.7682
R411 VDD.t51 VDD.n33 26.3889
R412 VDD.n73 VDD.n10 25.7991
R413 VDD.n80 VDD.n75 25.7912
R414 VDD.n52 VDD.n47 25.7893
R415 VDD.n61 VDD.n46 25.7873
R416 VDD.n83 VDD.n7 25.7854
R417 VDD.n58 VDD.n53 25.7854
R418 VDD.n37 VDD.n18 20.1034
R419 VDD.t50 VDD.n24 17.9501
R420 VDD.n95 VDD.n94 14.5582
R421 VDD.n94 VDD.n2 14.3237
R422 VDD.n24 VDD.n18 13.3893
R423 VDD.n20 VDD.n16 11.7255
R424 VDD VDD.n97 11.1908
R425 VDD VDD.t49 11.0951
R426 VDD.n85 VDD.n83 6.59094
R427 VDD.n58 VDD.n57 6.59094
R428 VDD.n63 VDD.n61 6.58898
R429 VDD.n52 VDD.n51 6.58703
R430 VDD.n80 VDD.n79 6.58507
R431 VDD.n73 VDD.n72 6.57724
R432 VDD.n22 VDD.n15 4.0642
R433 VDD.n24 VDD.n19 3.71928
R434 VDD.n91 VDD.n90 3.34156
R435 VDD.n11 VDD.n3 3.08674
R436 VDD.n40 VDD.n39 3.06246
R437 VDD.n39 VDD.n15 3.06246
R438 VDD.n95 VDD 2.62963
R439 VDD.n35 VDD.n15 2.52779
R440 VDD.n4 VDD.n0 2.48004
R441 VDD.n8 VDD.n1 2.29184
R442 VDD.n97 VDD.n0 1.65155
R443 VDD.n89 VDD.n5 1.6489
R444 VDD.n35 VDD.n14 1.5575
R445 VDD.n96 VDD.n1 1.52562
R446 VDD.n44 VDD.n43 1.5244
R447 VDD.n30 VDD.n13 0.98945
R448 VDD.n41 VDD.n13 0.98945
R449 VDD.n22 VDD.n2 0.970069
R450 VDD.n91 VDD.n4 0.862023
R451 VDD.n8 VDD.n3 0.795398
R452 VDD.n42 VDD.n41 0.695065
R453 VDD.n40 VDD.n14 0.695065
R454 VDD.n32 VDD.n14 0.6357
R455 VDD.n32 VDD.n31 0.6265
R456 VDD.n97 VDD.n96 0.424107
R457 VDD.n28 VDD.n12 0.380551
R458 VDD.n12 VDD.t13 0.303833
R459 VDD.n13 VDD.t28 0.303833
R460 VDD.n43 VDD.n42 0.27616
R461 VDD.n41 VDD.n40 0.262674
R462 VDD.n5 VDD 0.262078
R463 VDD.n42 VDD.n2 0.261707
R464 VDD.n29 VDD 0.217474
R465 VDD.n36 VDD.n35 0.197375
R466 VDD.n33 VDD.n32 0.197375
R467 VDD.n19 VDD.n13 0.197375
R468 VDD.n39 VDD.n38 0.197375
R469 VDD.n38 VDD.n37 0.197375
R470 VDD.n23 VDD.n22 0.197375
R471 VDD.n26 VDD.n12 0.197375
R472 VDD.n26 VDD.n25 0.197375
R473 VDD.n31 VDD.n30 0.13595
R474 VDD.n96 VDD.n95 0.132454
R475 VDD.n30 VDD.n29 0.110525
R476 VDD.n43 VDD.n12 0.108972
R477 VDD.n82 VDD.n4 0.0547889
R478 VDD.n59 VDD.n52 0.0547889
R479 VDD.n59 VDD.n58 0.0505
R480 VDD.n61 VDD.n60 0.0505
R481 VDD.n74 VDD.n73 0.0505
R482 VDD.n81 VDD.n80 0.0505
R483 VDD.n83 VDD.n82 0.0505
R484 VDD.n28 VDD.n5 0.0499188
R485 VDD.n49 VDD.n45 0.0470525
R486 VDD.n88 VDD.n87 0.043625
R487 VDD.n66 VDD.n65 0.043625
R488 VDD.n90 VDD.t21 0.0431131
R489 VDD.n91 VDD.t38 0.0431131
R490 VDD.n0 VDD.t1 0.0431131
R491 VDD.n11 VDD.t47 0.0431131
R492 VDD.n3 VDD.t20 0.0431131
R493 VDD.n1 VDD.t34 0.0431131
R494 VDD.n77 VDD.n6 0.038
R495 VDD.n70 VDD.n68 0.038
R496 VDD.n55 VDD.n45 0.0351875
R497 VDD.n89 VDD.n88 0.0259588
R498 VDD.n31 VDD 0.0256961
R499 VDD.n87 VDD.n86 0.0249131
R500 VDD.n85 VDD.n84 0.0249131
R501 VDD.n77 VDD.n76 0.0249131
R502 VDD.n79 VDD.n78 0.0249131
R503 VDD.n70 VDD.n69 0.0249131
R504 VDD.n72 VDD.n71 0.0249131
R505 VDD.n65 VDD.n64 0.0249131
R506 VDD.n63 VDD.n62 0.0249131
R507 VDD.n55 VDD.n54 0.0249131
R508 VDD.n57 VDD.n56 0.0249131
R509 VDD.n51 VDD.n50 0.0249131
R510 VDD.n49 VDD.n48 0.0249131
R511 VDD.n92 VDD.n91 0.0205046
R512 VDD.n94 VDD.n93 0.0205046
R513 VDD.n93 VDD.n3 0.0205046
R514 VDD.n92 VDD.n3 0.0205046
R515 VDD.n29 VDD.n28 0.0197986
R516 VDD.n48 VDD.t6 0.0187
R517 VDD.n48 VDD.t26 0.0187
R518 VDD.n50 VDD.t25 0.0187
R519 VDD.n50 VDD.t41 0.0187
R520 VDD.n84 VDD.t45 0.0187
R521 VDD.n84 VDD.t40 0.0187
R522 VDD.n86 VDD.t32 0.0187
R523 VDD.n86 VDD.t23 0.0187
R524 VDD.n7 VDD.t11 0.0187
R525 VDD.n7 VDD.t3 0.0187
R526 VDD.n78 VDD.t16 0.0187
R527 VDD.n78 VDD.t24 0.0187
R528 VDD.n76 VDD.t43 0.0187
R529 VDD.n76 VDD.t5 0.0187
R530 VDD.n75 VDD.t30 0.0187
R531 VDD.n75 VDD.t35 0.0187
R532 VDD.n71 VDD.t42 0.0187
R533 VDD.n71 VDD.t29 0.0187
R534 VDD.n69 VDD.t14 0.0187
R535 VDD.n69 VDD.t19 0.0187
R536 VDD.n10 VDD.t7 0.0187
R537 VDD.n10 VDD.t46 0.0187
R538 VDD.n62 VDD.t39 0.0187
R539 VDD.n62 VDD.t48 0.0187
R540 VDD.n64 VDD.t22 0.0187
R541 VDD.n64 VDD.t33 0.0187
R542 VDD.n46 VDD.t2 0.0187
R543 VDD.n46 VDD.t15 0.0187
R544 VDD.n56 VDD.t10 0.0187
R545 VDD.n56 VDD.t17 0.0187
R546 VDD.n54 VDD.t37 0.0187
R547 VDD.n54 VDD.t44 0.0187
R548 VDD.n53 VDD.t18 0.0187
R549 VDD.n53 VDD.t31 0.0187
R550 VDD.n47 VDD.t36 0.0187
R551 VDD.n47 VDD.t8 0.0187
R552 VDD.n9 VDD.n8 0.00883333
R553 VDD.n60 VDD.n9 0.007278
R554 VDD.n74 VDD.n9 0.00674189
R555 VDD.n82 VDD.n81 0.00478891
R556 VDD.n81 VDD.n74 0.00478891
R557 VDD.n60 VDD.n59 0.00478891
R558 VDD.n67 VDD.n44 0.00473203
R559 VDD.n67 VDD.n66 0.00406655
R560 VDD.n68 VDD.n67 0.00401084
R561 VDD.n90 VDD.n89 0.0031422
R562 VDD.n88 VDD.n6 0.00252126
R563 VDD.n68 VDD.n6 0.00252126
R564 VDD.n66 VDD.n45 0.00252126
R565 VDD.n44 VDD.n11 0.00172034
R566 VDD.n93 VDD.t9 0.00100004
R567 VDD.t9 VDD.n92 0.00100004
R568 x1.PLUS.n0 x1.PLUS.t2 53.5367
R569 x1.PLUS.n1 x1.PLUS.t1 13.9911
R570 x1.PLUS x1.PLUS.t0 10.2104
R571 x1.PLUS.n0 x1.PLUS 0.0481471
R572 x1.PLUS.n1 x1.PLUS.n0 0.0140678
R573 x1.PLUS x1.PLUS.n1 0.00592714
R574 VSS.t58 VSS.t0 115295
R575 VSS.t0 VSS.t2 14065
R576 VSS.t2 VSS.t13 14065
R577 VSS.n264 VSS.t13 7182.67
R578 VSS.n261 VSS.n259 383.183
R579 VSS.n259 VSS.t6 353.707
R580 VSS.n255 VSS.t6 353.707
R581 VSS.n255 VSS.t80 353.707
R582 VSS.t77 VSS.n263 328.077
R583 VSS.n263 VSS.t75 328.077
R584 VSS.t75 VSS.n261 328.077
R585 VSS.n264 VSS.t77 327.49
R586 VSS.n165 VSS.n85 324.418
R587 VSS.n163 VSS.n76 324.418
R588 VSS.n179 VSS.n72 324.418
R589 VSS.n177 VSS.n63 324.418
R590 VSS.n192 VSS.n60 324.418
R591 VSS.n190 VSS.n51 324.418
R592 VSS.n206 VSS.n47 324.418
R593 VSS.n204 VSS.n38 324.418
R594 VSS.n219 VSS.n35 324.418
R595 VSS.n217 VSS.n28 324.418
R596 VSS.n249 VSS.t25 322.483
R597 VSS.n153 VSS.t44 322.084
R598 VSS.t44 VSS.n85 322.084
R599 VSS.t66 VSS.n163 322.084
R600 VSS.t5 VSS.n72 322.084